Circuit: * C:\Users\marten\Code\SteinerVCF\SteinerVCF.asc

D1: both pins shorted together -- ignoring.
D12: both pins shorted together -- ignoring.
WARNING: Node N008 is floating.
WARNING: Node N021 is floating.

WARNING: Less than two connections to node NC_01.  This node is used by R11.
WARNING: Less than two connections to node N008.  This node is used by C10.
WARNING: Less than two connections to node N002.  This node is used by R18.
WARNING: Less than two connections to node N021.  This node is used by R20.
WARNING: Less than two connections to node NC_02.  This node is used by R25.
Direct Newton iteration for .op point succeeded.

Date: Tue Oct 16 23:35:18 2018
Total elapsed time: 0.061 seconds.

tnom = 27
temp = 27
method = trap
totiter = 23
traniter = 0
tranpoints = 0
accept = 0
rejected = 0
matrix size = 102
fillins = 146
solver = Normal
Matrix Compiler1:     704 opcodes
Matrix Compiler2: 10.85 KB object code size
